 &time_control
! run_days                            = 0,
! run_hours                           = 0,
! run_minutes                         = 0,
! run_seconds                         = 0,
 start_year                          = 2023, 2023, 2023,
 start_month                         = 01, 01, 01,
 start_day                           = 01, 01, 01,
 start_hour                          = 00, 00, 00,
 start_minute                        = 00, 00, 00,
 start_second                        = 00, 00, 00, 
 end_year                            = 2023, 2023, 2023,
 end_month                           = 01, 01, 01,
 end_day                             = 02, 02, 02,
 end_hour                            = 00, 00, 00,
 end_minute                          = 00, 00, 00,
 end_second                          = 00, 00, 00,
 interval_seconds                    = 3600,
 io_form_input                       = 2,
 bdy_inname                          = "wrfbdy_d<domain>_<date>",
 io_form_boundary                    = 2,
 input_from_file                     = .true., .true., .true.,
 history_outname                     = "wrfout_d<domain>_<date>_temp",
 history_interval                    = 60, 999999, 999999
 io_form_history                     = 2,
 frames_per_outfile                  = 1,    1,    1,   
 restart                             = F,
 restart_interval                    = 720,
 io_form_restart                     = 2,
 output_diagnostics                  = 1,
 auxhist3_outname                    = "15min_d<domain>_<date>_temp",
 auxhist3_interval                   = 999999, 999999, 360,
 frames_per_auxhist3                 = 1, 1, 1,
 io_form_auxhist3                    = 2,
 adjust_output_times                 = .true.,
! iofields_filename                   = "aux_var_file_d01.txt", "aux_var_file_d02.txt", "aux_var_file_d03.txt",
! nocolons                            = .true.,
 debug_level                         = 0
 /

 &domains
 time_step                           = 60,
 use_adaptive_time_step              = .false.,
 step_to_output_time                 = .true.,
 target_cfl                          = 1.28,   1.28, 1.28,
 target_hcfl                         = 0.9,    0.9, 0.9,
 max_step_increase_pct               = 5,     5, 5,
 starting_time_step                  = 36,     12, 4,
 max_time_step                       = 54,     18, 6,
 min_time_step                       = 9,      3, 1,
 adaptation_domain                   = 1,
 time_step_fract_num                 = 0,
 time_step_fract_den                 = 1,
 reasonable_time_step_ratio          = 20,
 max_dom                             = 1,
 e_we                                = 414, 718,  508,
 e_sn                                = 285, 754,  502,
 e_vert                              = 100,   100,    100,
 max_dz                              = 1000.,
 auto_levels_opt                     = 2,
 dzbot                               = 40.,
 dzstretch_s                         = 1.07,
 dzstretch_u                         = 1.015,
 p_top_requested                     = 1000,
 num_metgrid_levels                  = 8,
 num_metgrid_soil_levels             = 4,
 dx                                  = 17788.396000, 2964.733, 988.2442, 
 dy                                  = 17788.396000, 2964.733, 988.2442,
 grid_id                             = 1,     2,    3,
 parent_id                           = 0,     1,    2,
 i_parent_start                      = 1,  504,  272, 
 j_parent_start                      = 1,  163,  194,
 parent_grid_ratio                   = 1,     3,    3,
 parent_time_step_ratio              = 1,     3,    3,
 feedback                            = 0,
 smooth_option                       = 0,
 nproc_x                             = 16,
 nproc_y                             = 8, 
 /

 &physics
 mp_physics                          = 8,     8,   8, 
 ra_lw_physics                       = 4,     4,   4, 
 ra_sw_physics                       = 4,     4,   4, 
 radt                                = 9,     3,   1,
 sf_sfclay_physics                   = 1,     1,   1, 
 sf_surface_physics                  = 2,     2,   2, 
 bl_pbl_physics                      = 1,     1,   1,
 topo_wind                           = 1,     1,   1,   
 bldt                                = 0,     0,   0, 
 cu_physics                          = 3,     0,   0, 
 cudt                                = 3,     0,   0,
 isfflx                              = 1,
 ifsnow                              = 1,
 icloud                              = 1,
 surface_input_source                = 1,
 num_land_cat                        = 21,
 num_soil_layers                     = 4,
 sf_urban_physics                    = 0,     0,   0,
 do_radar_ref                        = 1,
 prec_acc_dt                         = 60.,   60.,  60.
 /

 &noah_mp
 dveg                               = 2,
 opt_crs                            = 1,
 opt_sfc                            = 1,
 opt_btr                            = 1,
 opt_run                            = 1,
 opt_frz                            = 1,
 opt_inf                            = 1,
 opt_rad                            = 1,
 opt_alb                            = 2,
 opt_snf                            = 1,
 opt_tbot                           = 2,
 opt_stc                            = 1,
 opt_gla                            = 1,
 opt_rsf                            = 1,
 opt_soil                           = 1,
 opt_crop                           = 0
 /

 &fdda
 /

 &dynamics
 zadvect_implicit                    = 1,
 w_damping                           = 1,
 w_crit_cfl                          = 1.5,
 diff_opt                            = 1, 1, 1,
 km_opt                              = 4, 4, 4,
 diff_6th_opt                        = 0,      0,    0,
 diff_6th_factor                     = 0.12,   0.12, 0.12,
 base_temp                           = 290.,
 damp_opt                            = 3,
 zdamp                               = 5000.,  5000.,  5000.,
 dampcoef                            = 0.2,    0.2, 0.2,
 khdif                               = 0,      0, 0,
 kvdif                               = 0,      0, 0,
 non_hydrostatic                     = .true., .true., .true.,
 moist_adv_opt                       = 1,      1,     1,
 scalar_adv_opt                      = 1,      1,     1,
 epssm                               = 0.5,    0.5,   0.5,
 hybrid_opt                          = 2,
 /

 &bdy_control
 multi_bdy_files                     = .true.,
 spec_bdy_width                      = 5,
 spec_zone                           = 1,
 relax_zone                          = 4,
 specified                           = .true., .false., .false.,
 nested                              = .false., .true., .true.,
 polar                               = .false., .false., .false.
 /

 &grib2
 /

 &namelist_quilt
 nio_tasks_per_group                 = 0,
 nio_groups                          = 1,
 /
