&share
 wrf_core = 'ARW',
 max_dom = 1,
 start_date = '2022-01-07_00:00:00', '2022-01-07_00:00:00', '2022-01-07_00:00:00',
 end_date   = '2022-01-08_00:00:00', '2022-01-08_00:00:00', '2022-01-08_00:00:00',
 interval_seconds = 10800,
 io_form_geogrid = 2,
! nocolons = .true.
/

&geogrid
 parent_id         =   1,   1,   2,
 parent_grid_ratio =   1,   3,   3,
 i_parent_start    =   1,  504,  272,
 j_parent_start    =   1,  163,  194,
 e_we              =  828, 718,  508,
 e_sn              =  570, 754,  502,
 geog_data_res     = 'default','default','default',
 dx = 0.08,
 dy = 0.08,
 map_proj = 'lat-lon',
 ref_lat   =  39.0,
 ref_lon   = -143.5,
 pole_lat  =  51.0,
 pole_lon  =  180.0,
 stand_lon = 125.0,
! geog_data_path = '/cw3e/mead/datasets/ncar/wrf/wps_geog/v4/WPS_GEOG_HIGH_RES',
! geog_data_path = '/home/t2hsu/models/WRF/shared/WPS_GEOG_LOW_RES',
 geog_data_path = '/expanse/lustre/scratch/t2hsu/temp_project/WPS_GEO_DATA/WPS_GEOG',
/

&ungrib
 out_format = 'WPS',
 prefix = 'ERA5',
/

&metgrid
 fg_name = 'ERA5'
 io_form_metgrid = 2,
 opt_output_from_metgrid_path = './',
! opt_metgrid_tbl_path = '/expanse/nfs/cw3e/cnt108/NRT_gfs/CW3E-NRT_2023-2024_gfs_expanse/static',
/
